LAMMPS (8 Apr 2021)
# Big colloid particles and small LJ particles

units		lj
atom_style	sphere
dimension	2

lattice		sq 0.01
Lattice spacing in x,y,z = 10.000000 10.000000 10.000000
region		box block 0 30 0 30 -0.5 0.5
create_box	2 box
Created orthogonal box = (0.0000000 0.0000000 -5.0000000) to (300.00000 300.00000 5.0000000)
create_atoms	1 box
Created 900 atoms

set		group all type/fraction 2 0.96 23984
Setting atom values ...
  861 settings made for type/fraction

set		type 1 mass 9
Setting atom values ...
  39 settings made for mass
set		type 2 mass 1
Setting atom values ...
  861 settings made for mass

velocity	all create 1.44 87287 loop geom

# multi neighbor and comm for efficiency

neighbor	1 multi
neigh_modify	delay 0
comm_modify     mode multi

# colloid potential

pair_style	colloid 12.5
pair_coeff	1 1  1.0 1.0 5.0 5.0 12.5
pair_coeff	1 2  5.0 1.0 5.0 0.0 7.0
pair_coeff	2 2 10.0 1.0 0.0 0.0 2.5

fix		1 all npt temp 2.0 2.0 1.0 iso 0.0 1.0 10.0 drag 1.0 	        mtk no pchain 0 tchain 1
fix		2 all enforce2d

#dump		1 all atom 1000 dump.colloid

#dump		2 all image 1000 image.*.jpg type type #		zoom 1.5 center d 0.5 0.5 0.5
#dump_modify	2 pad 5 adiam 1 5.0 adiam 2 1.5

#dump		3 all movie 1000 movie.mpg type type #		zoom 1.5 center d 0.5 0.5 0.5
#dump_modify	3 pad 5 adiam 1 5.0 adiam 2 1.5

thermo_style	custom step temp epair etotal press vol
thermo		1000

timestep	0.005

run		50000

CITE-CITE-CITE-CITE-CITE-CITE-CITE-CITE-CITE-CITE-CITE-CITE-CITE

Your simulation uses code contributions which should be cited:

- neighbor multi command: doi:10.1016/j.cpc.2008.03.005, doi:10.1007/s40571-020-00361-2

@Article{Intveld08,
 author =  {P.{\,}J.~in{\,}'t~Veld and S.{\,}J.~Plimpton and G.{\,}S.~Grest},
 title =   {Accurate and Efficient Methods for Modeling Colloidal
            Mixtures in an Explicit Solvent using Molecular Dynamics},
 journal = {Comp.~Phys.~Comm.},
 year =    2008,
 volume =  179,
 pages =   {320--329}
}

@article{Stratford2018,
 author = {Stratford, Kevin and Shire, Tom and Hanley, Kevin},
 title = {Implementation of multi-level contact detection in LAMMPS},
 year = {2018}
}

@article{Shire2020,
 author = {Shire, Tom and Hanley, Kevin J. and Stratford, Kevin},
 title = {DEM simulations of polydisperse media: efficient contact
          detection applied to investigate the quasi-static limit},
 journal = {Computational Particle Mechanics},
 year = {2020}
}

CITE-CITE-CITE-CITE-CITE-CITE-CITE-CITE-CITE-CITE-CITE-CITE-CITE

  update every 1 steps, delay 0 steps, check yes
Step Temp E_pair TotEng Press Volume
0         1.44 -2.2136534e-06    1.4383978  0.014383923        90000
Averages over the last 26 of 51 rows, steps 25000 to 50000:
Temp E_pair TotEng Press Volume
2.0094 0.0675047 2.07467 0.750032 4529.75
Loop time of 5.02877 on 8 procs for 50000 steps with 900 atoms
