LAMMPS (2 Aug 2023 - Development - bc02a7cc6)
# Testsystem for core-shell model compared to Mitchell and Fincham
# Hendrik Heenen, June 2014

# ------------------------ INITIALIZATION ----------------------------

units 		metal
dimension	3
boundary	p	p	p
atom_style	full

# ----------------------- ATOM DEFINITION ----------------------------

fix csinfo all property/atom i_CSID
read_data data.coreshell fix csinfo NULL CS-Info
Reading data file ...
  orthogonal box = (0 0 0) to (24.09597 24.09597 24.09597)
  reading atoms ...
  432 atoms
  scanning bonds ...
  reading bonds ...
  216 bonds
Finding 1-2 1-3 1-4 neighbors ...
     1 = max # of 1-2 neighbors
     0 = max # of 1-3 neighbors
     0 = max # of 1-4 neighbors
     1 = max # of special neighbors

group cores type 1 2
216 atoms in group cores
group shells type 3 4
216 atoms in group shells

neighbor 2.0 bin
comm_modify vel yes

# ------------------------ FORCE FIELDS ------------------------------

kspace_style ewald 1.0e-6
pair_style   born/coul/long/cs 20.0 20.0    # A, rho, sigma=0, C, D
pair_coeff   * *      0.0 1.000   0.00  0.00   0.00
pair_coeff   3 3    487.0 0.23768 0.00  1.05   0.50 #Na-Na
pair_coeff   3 4 145134.0 0.23768 0.00  6.99   8.70 #Na-Cl
pair_coeff   4 4 405774.0 0.23768 0.00 72.40 145.40 #Cl-Cl

bond_style harmonic
bond_coeff 1 63.014 0.0
bond_coeff 2 25.724 0.0

# ------------------------ Equilibration Run -------------------------------

reset_timestep 0

thermo 50
thermo_style custom step etotal pe ke temp press              epair evdwl ecoul elong ebond fnorm fmax vol

compute CStemp all temp/cs cores shells
compute thermo_press_lmp all pressure thermo_temp # press for correct kinetic scalar

# output via chunk method

#compute prop all property/atom i_CSID
#compute cs_chunk all chunk/atom c_prop
#compute cstherm all temp/chunk cs_chunk temp internal com yes cdof 3.0
#fix ave_chunk all ave/time 100 1 100 c_cstherm file chunk.dump mode vector

thermo_modify temp CStemp press thermo_press_lmp

# 2 fmsec timestep

timestep 0.002

# velocity bias option

velocity all create 1427 134 dist gaussian mom yes rot no bias yes temp CStemp
Ewald initialization ...
  G vector (1/distance) = 0.17525654
  estimated absolute RMS force accuracy = 1.4956298e-05
  estimated relative force accuracy = 1.0386574e-06
  KSpace vectors: actual max1d max3d = 257 5 665
                  kxmax kymax kzmax  = 5 5 5
Generated 0 of 6 mixed pair_coeff terms from geometric mixing rule
velocity all scale 1427 temp CStemp

# thermostating using the core/shell decoupling

fix thermoberendsen all temp/berendsen 1427 1427 0.4
fix nve all nve
fix_modify thermoberendsen temp CStemp

run 500
Ewald initialization ...
  G vector (1/distance) = 0.17525654
  estimated absolute RMS force accuracy = 1.4956298e-05
  estimated relative force accuracy = 1.0386574e-06
  KSpace vectors: actual max1d max3d = 257 5 665
                  kxmax kymax kzmax  = 5 5 5
Generated 0 of 6 mixed pair_coeff terms from geometric mixing rule
Step         TotEng         PotEng         KinEng          Temp          Press          E_pair         E_vdwl         E_coul         E_long         E_bond         Fnorm           Fmax          Volume
0  -635.44099     -675.09865      39.657659      1427          -20613.612     -675.09865      1.6320365      1018.8211     -1695.5518      0              2.9838817e-14  4.4215933e-15  13990.5
Loop time of 1.8287 on 8 procs for 500 steps with 432 atoms

unfix thermoberendsen
unfix nve

fix npt_equ all npt temp 1427 1427 0.04 iso 0 0 0.4
fix_modify npt_equ temp CStemp press thermo_press_lmp # pressure for correct kinetic scalar

run 500
Ewald initialization ...
  G vector (1/distance) = 0.17525654
  estimated absolute RMS force accuracy = 1.4956298e-05
  estimated relative force accuracy = 1.0386574e-06
  KSpace vectors: actual max1d max3d = 257 5 665
                  kxmax kymax kzmax  = 5 5 5
Generated 0 of 6 mixed pair_coeff terms from geometric mixing rule
Step         TotEng         PotEng         KinEng          Temp          Press          E_pair         E_vdwl         E_coul         E_long         E_bond         Fnorm           Fmax          Volume
500  -624.30214     -661.98005      37.677917      1355.763      -998.45569     -664.60514      42.373055      987.58946     -1694.5676      2.6250807      11.151711      2.8269369      13990.5
Loop time of 1.75824 on 8 procs for 500 steps with 432 atoms

unfix npt_equ

# ------------------------ Dynamic Run -------------------------------

fix npt_dyn all npt temp 1427 1427 0.04 iso 0 0 0.4
fix_modify npt_dyn temp CStemp press thermo_press_lmp # pressure for correct kinetic scalar
run 1000
Ewald initialization ...
  G vector (1/distance) = 0.17518766
  estimated absolute RMS force accuracy = 1.5061632e-05
  estimated relative force accuracy = 1.0459725e-06
  KSpace vectors: actual max1d max3d = 257 5 665
                  kxmax kymax kzmax  = 5 5 5
Generated 0 of 6 mixed pair_coeff terms from geometric mixing rule
Step         TotEng         PotEng         KinEng          Temp          Press          E_pair         E_vdwl         E_coul         E_long         E_bond         Fnorm           Fmax          Volume
1000  -617.49941     -659.12785      41.62844       1497.9146      591.32599     -661.94337      45.076315      986.90542     -1693.9251      2.8155196      11.57554       2.2697096      14263.261
Averages over the last 11 of 21 rows, steps 1500 to 2000:
TotEng PotEng KinEng Temp Press E_pair E_vdwl E_coul E_long E_bond Fnorm Fmax Volume
-613.991 -654.309 40.3181 1450.77 68.0517 -657.143 44.2034 992.474 -1693.82 2.83364 11.2657 2.1055 15412.8
Loop time of 3.17913 on 8 procs for 1000 steps with 432 atoms
