LAMMPS (27 Oct 2021)
# 3d Lennard-Jones melt, thermostatted by fix controller

units		lj
atom_style	atomic

lattice		fcc 0.8442
Lattice spacing in x,y,z = 1.6795962 1.6795962 1.6795962
region		box block 0 10 0 10 0 10
create_box	1 box
Created orthogonal box = (0.0000000 0.0000000 0.0000000) to (16.795962 16.795962 16.795962)
create_atoms	1 box
Created 4000 atoms
mass		1 1.0

velocity	all create 1.44 87287 loop geom

pair_style	lj/cut 2.5
pair_coeff	1 1 1.0 1.0 2.5

neighbor	0.3 bin
neigh_modify	delay 0 every 20 check no

fix		1 all nve

variable        tcontrol internal 0.5
fix             tstat all langevin v_tcontrol 0.5 0.5 2938940

# equilibrate

thermo          50
run		500
  update every 20 steps, delay 0 steps, check no
Step Temp E_pair E_mol TotEng Press
0         1.44   -6.7733681            0   -4.6139081   -5.0199732
Loop time of 0.215584 on 8 procs for 500 steps with 4000 atoms

# instantaneous temp for control

fix             10 all controller 100 1.0 0.5 0.0 0.0                 c_thermo_temp 1.5 tcontrol

# time-average temp for control

#fix             ave all ave/time 5 20 100 c_thermo_temp
#fix             10 all controller 100 1.0 0.5 0.0 0.0 #                f_ave 1.5 tcontrol

# run with controller

run             2500
Step Temp E_pair E_mol TotEng Press
500   0.50853821   -6.1557794            0   -5.3931627   -2.1404356
Averages over the last 26 of 51 rows, steps 1750 to 3000:
Temp E_pair E_mol TotEng Press
1.49726 -4.87109 0 -2.62576 5.17142
Loop time of 1.07219 on 8 procs for 2500 steps with 4000 atoms
