LAMMPS (2 Aug 2023 - Development - bc02a7cc6)
# 2d SRD test: big + small particles

units		lj
atom_style	sphere
atom_modify	first big
dimension	2

# create big particles with sigma 1.0

lattice		sq 0.4
Lattice spacing in x,y,z = 1.5811388 1.5811388 1.5811388
region		box block 0 10 0 10 -0.5 0.5
create_box	2 box
Created orthogonal box = (0 0 -0.79056942) to (15.811388 15.811388 0.79056942)
create_atoms	1 region box
Created 100 atoms
set		type 1 mass 1.0
Setting atom values ...
  100 settings made for mass
set		type 1 diameter 1.0
Setting atom values ...
  100 settings made for diameter

group		big type 1
100 atoms in group big
velocity	big create 1.44 87287 loop geom

# equilibrate big particles

pair_style	lj/cut 2.5
pair_coeff	1 1 1.0 1.0
pair_coeff	2 2 0.0 1.0 0.0
pair_coeff	1 2 0.0 1.0 0.0

neighbor	0.3 bin
neigh_modify	delay 0 every 1 check yes

fix		1 big nve
fix		2 all enforce2d

run		1000
Generated 0 of 1 mixed pair_coeff terms from geometric mixing rule
Step          Temp          E_pair         E_mol          TotEng         Press
0   1.44          -0.54272        0              0.88288       -0.041088
Loop time of 0.0337254 on 8 procs for 1000 steps with 100 atoms

unfix		1
unfix		2

# add small particles as hi density lattice

lattice		sq 0.4
Lattice spacing in x,y,z = 1.5811388 1.5811388 1.5811388
region		plane block 0 10 0 10 -0.001 0.001
lattice		sq 85.0
Lattice spacing in x,y,z = 0.10846523 0.10846523 0.10846523
create_atoms	2 region plane
Created 21316 atoms
set		type 2 mass 0.01
Setting atom values ...
  21316 settings made for mass
set		type 2 diameter 0.0
Setting atom values ...
  21316 settings made for diameter

group		small type 2
21316 atoms in group small

velocity	small create 1.0 593849 loop geom

# delete overlaps
# must set 1-2 cutoff to non-zero value

pair_style	lj/cut 2.5
pair_coeff	1 1 1.0 1.0
pair_coeff	2 2 0.0 1.0 0.0
pair_coeff	1 2 0.0 1.0 0.5

delete_atoms	overlap 0.5 small big
System init for delete_atoms ...
Generated 0 of 1 mixed pair_coeff terms from geometric mixing rule
Deleted 6700 atoms, new total = 14716

# SRD run

reset_timestep	0

neighbor	0.3 multi
neigh_modify	delay 0 every 1 check yes

comm_modify	mode multi group big vel yes
neigh_modify	include big

# no pairwise interactions with small particles

pair_style	lj/cut 2.5
pair_coeff	1 1 1.0 1.0
pair_coeff	2 2 0.0 1.0 0.0
pair_coeff	1 2 0.0 1.0 0.0

# use fix SRD to push small particles out from inside big ones

timestep	0.001

fix		1 big nve
fix	        2 small srd 20 big 1.0 0.25 49894 		  radius 0.88 search 0.2 collision slip
fix		3 all enforce2d

# diagnostics

compute		tbig big temp
variable	pebig equal pe*atoms/count(big)
variable	ebig equal etotal*atoms/count(big)
thermo_style	custom step temp f_2[7] etotal v_pebig v_ebig press 		f_2[1] f_2[2] f_2[3] f_2[4] f_2[5] 		f_2[6] f_2[8] f_2[9] f_2[10]

thermo_modify	temp tbig
thermo		100

#dump		1 all atom 250 dump.srd.mixture

#dump		2 all image 250 image.*.jpg type type zoom 1.6
#dump_modify	2 pad 4 adiam 1 1 adiam 2 0.2

#dump		3 all movie 250 movie.mpg type type zoom 1.6
#dump_modify	3 pad 4 adiam 1 1 adiam 2 0.2

run		5000

CITE-CITE-CITE-CITE-CITE-CITE-CITE-CITE-CITE-CITE-CITE-CITE-CITE

Your simulation uses code contributions which should be cited:

- neighbor multi command: doi:10.1016/j.cpc.2008.03.005, doi:10.1007/s40571-020-00361-2

@Article{Intveld08,
 author =  {in 't Veld, P. J. and S. J.~Plimpton and G. S. Grest},
 title =   {Accurate and Efficient Methods for Modeling Colloidal
            Mixtures in an Explicit Solvent using Molecular Dynamics},
 journal = {Comput.\ Phys.\ Commut.},
 year =    2008,
 volume =  179,
 pages =   {320--329}
}

@article{Shire2020,
 author = {Shire, Tom and Hanley, Kevin J. and Stratford, Kevin},
 title = {{DEM} Simulations of Polydisperse Media: Efficient Contact
          Detection Applied to Investigate the Quasi-Static Limit},
 journal = {Computational Particle Mechanics},
 year = {2020}
@article{Monti2022,
 author = {Monti, Joseph M. and Clemmer, Joel T. and Srivastava,
           Ishan and Silbert, Leonardo E. and Grest, Gary S.
           and Lechman, Jeremy B.},
 title = {Large-scale frictionless jamming with power-law particle
          size distributions},
 journal = {Phys. Rev. E},
 volume = {106}
 issue = {3}
 year = {2022}
}

- fix srd command: doi:10.1063/1.3419070

@Article{Petersen10,
 author = {M. K. Petersen and J. B. Lechman and S. J. Plimpton and
 G. S. Grest and in 't Veld, P. J. and P. R. Schunk},
 title =   {Mesoscale Hydrodynamics via Stochastic Rotation
    Dynamics: Comparison with {L}ennard-{J}ones Fluid},
 journal = {J.~Chem.\ Phys.},
 year =    2010,
 volume =  132,
 pages =   174106
}

CITE-CITE-CITE-CITE-CITE-CITE-CITE-CITE-CITE-CITE-CITE-CITE-CITE

Generated 0 of 1 mixed pair_coeff terms from geometric mixing rule
SRD info:
  SRD/big particles = 14616 100
  big particle diameter max/min = 0.88 0.88
  SRD temperature & lamda = 1 0.2
  SRD max distance & max velocity = 0.8 40
  SRD grid counts: 63 63 1
  SRD grid size: request, actual (xyz) = 0.25, 0.25097442 0.25097442 1.5811388
  SRD per actual grid cell = 4.8664813
  SRD viscosity = 0.46344782
  big/SRD mass density ratio = 2.1280833
  # of rescaled SRD velocities = 0
  ave/max small velocity = 13.294362 24.261991
  ave/max big velocity = 1.692844 5.1098925
Step          Temp          f_2[7]         TotEng        v_pebig         v_ebig         Press          f_2[1]         f_2[2]         f_2[3]         f_2[4]         f_2[5]         f_2[6]         f_2[8]         f_2[9]        f_2[10]
0   1.8791467      0              0.0060376284  -0.97185784     0.8884974      0.61487657     0              0              0              0              0              0              0              0              0
Averages over the last 26 of 51 rows, steps 2500 to 5000:
Temp f_2[7] TotEng v_pebig v_ebig Press f_2[1] f_2[2] f_2[3] f_2[4] f_2[5] f_2[6] f_2[8] f_2[9] f_2[10]
1.03515 3969 -0.000427669 -1.08774 -0.0629357 0.379085 7463.69 82.7692 82.7692 0 1156.31 33000 3001.08 1.01631 0
Loop time of 1.0621 on 8 procs for 5000 steps with 14716 atoms
