LAMMPS (28 Mar 2023 - Development)
# 3D copper block simulation
boundary     p p p
units        metal
atom_style   atomic

# geometry
read_data	 data.pos
Reading data file ...
  triclinic box = (0 0 -10) to (25.22 21.841161 10) with tilt (12.61 0 0)
  reading atoms ...
  200 atoms

mass		*   12.0107

# EAM potential
pair_style   tersoff
pair_coeff   * * SiC.tersoff C
neighbor     2. nsq
neigh_modify every 1 delay 0 check yes

#Langevin random seed
variable     dt equal 2e-3
variable     r  equal 57085
variable     T  equal 300
variable     dT equal "v_dt * 100"

timestep 0.002

# initialize
velocity     all create $T 28459 rot yes dist gaussian mom yes
velocity     all create 300 28459 rot yes dist gaussian mom yes
reset_timestep 0

# fixes
fix          1 all langevin 300 300 0.2 73504 zero yes
fix          2 all nve
fix          3 all phonon 10 50000 1000000 map.in Graphene nasr 50

# output
#                    1    2    3  4  5     6   7
thermo_style custom step temp pe ke press pxx pyy
thermo       100

restart      1000000 restart.one restart.two

dump   1 all xyz 50000 dump.graphene.xyz

# execution
run 	 2000000

CITE-CITE-CITE-CITE-CITE-CITE-CITE-CITE-CITE-CITE-CITE-CITE-CITE

Your simulation uses code contributions which should be cited:

- fix phonon command: doi:10.1016/j.cpc.2011.04.019

@Article{Kong11,
 author = {L. T. Kong},
 title = {Phonon Dispersion Measured Directly from Molecular Dynamics Simulations},
 journal = {Comput.\ Phys.\ Commun.},
 year =    2011,
 volume =  182,
 pages =   {2201--2207}
}

CITE-CITE-CITE-CITE-CITE-CITE-CITE-CITE-CITE-CITE-CITE-CITE-CITE

Step          Temp          PotEng         KinEng         Press           Pxx            Pyy
0   300           -1478.5197      7.7168307      4437.9206      6311.3318      6292.9984
Averages over the last 10001 of 20001 rows, steps 1000000 to 2000000:
Temp PotEng KinEng Press Pxx Pyy
300.361 -1470.12 7.72612 2654.43 4001.49 3972.72
Loop time of 273.617 on 8 procs for 2000000 steps with 200 atoms

write_restart Restart.final
System init for write_restart ...
