LAMMPS (28 Mar 2023 - Update 1)
# sample surface deposition script for molecules

units		lj
atom_style      bond
boundary        p p f

lattice		fcc 1.0
Lattice spacing in x,y,z = 1.5874011 1.5874011 1.5874011
region          box block 0 5 0 5 0 10
create_box      3 box bond/types 1 extra/bond/per/atom 1
Created orthogonal box = (0 0 0) to (7.9370053 7.9370053 15.874011)

region		substrate block INF INF INF INF INF 3
create_atoms	1 region substrate
Created 350 atoms

pair_style	lj/cut 2.5
pair_coeff	* * 1.0 1.0
pair_coeff	1 2 1.0 1.0 5.0
mass		* 1.0

bond_style	harmonic
bond_coeff      1 5.0 1.0

neigh_modify	delay 0

group		addatoms type 2
0 atoms in group addatoms
region          mobile block 0 5 0 5 2 INF
group		mobile region mobile
150 atoms in group mobile

compute		add addatoms temp
compute_modify	add dynamic/dof yes extra/dof 0

fix		1 addatoms nve
fix		2 mobile langevin 0.1 0.1 0.1 587283
fix		3 mobile nve

molecule        dimer molecule.dimer.shake
Read molecule template dimer:
  1 molecules
  0 fragments
  2 atoms with max type 3
  1 bonds with max type 1
  0 angles with max type 0
  0 dihedrals with max type 0
  0 impropers with max type 0
region          slab block 0 5 0 5 8 9
fix		4 addatoms deposit 100 0 100 12345 region slab near 1.0                 mol dimer vz -1.0 -1.0 shake 6
fix		5 addatoms wall/reflect zhi EDGE
fix             6 all shake 0.0001 20 1000 b 1 mol dimer
Finding SHAKE clusters ...
       0 = # of size 2 clusters
       0 = # of size 3 clusters
       0 = # of size 4 clusters
       0 = # of frozen angles
  find clusters CPU = 0.128 seconds

thermo_style	custom step atoms temp epair etotal press
thermo          100
thermo_modify	temp add lost/bond ignore lost warn

#dump		1 all atom 50 dump.deposit.atom

#dump		2 all image 50 image.*.jpg type type #		axes yes 0.8 0.02 view 80 -30
#dump_modify	2 pad 5

#dump		3 all movie 50 tmp.mpg type type #		axes yes 0.8 0.02 view 80 -30
#dump_modify	3 pad 5

run             10000
Generated 0 of 3 mixed pair_coeff terms from geometric mixing rule
SHAKE stats (type/ave/delta/count) on step 0
Step        Atoms         Temp          E_pair         TotEng         Press
0         350   0             -6.9215833     -6.9215833     -1.0052629
Bond:   1   1         2.22045e-15       10
SHAKE stats (type/ave/delta/count) on step 2000
Bond:   1   1         1.66533e-15       20
SHAKE stats (type/ave/delta/count) on step 3000
Bond:   1   1         2.10942e-15       30
SHAKE stats (type/ave/delta/count) on step 4000
Bond:   1   1         2.10942e-15       40
SHAKE stats (type/ave/delta/count) on step 5000
Bond:   1   1         2.44249e-15       50
SHAKE stats (type/ave/delta/count) on step 6000
Bond:   1   1         2.22045e-15       60
SHAKE stats (type/ave/delta/count) on step 7000
Bond:   1   1         2.77556e-15       70
SHAKE stats (type/ave/delta/count) on step 8000
Bond:   1   1         2.77556e-15       80
SHAKE stats (type/ave/delta/count) on step 9000
Bond:   1   1         2.77556e-15       90
SHAKE stats (type/ave/delta/count) on step 10000
Bond:   1   1         2.55351e-15      100
Loop time of 14.8712 on 8 procs for 10000 steps with 550 atoms
