LAMMPS (2 Aug 2023 - Development - bc02a7cc6)
# Tethered nanorods

atom_style	molecular

read_data	data.rigid.tnr
Reading data file ...
  orthogonal box = (-31.122 -31.122 -31.122) to (31.122 31.122 31.122)
  reading atoms ...
  5600 atoms
  scanning bonds ...
  reading bonds ...
  1600 bonds
Finding 1-2 1-3 1-4 neighbors ...
     2 = max # of 1-2 neighbors
     1 = max # of 1-3 neighbors
     1 = max # of 1-4 neighbors
     2 = max # of special neighbors

# Specify bond parameters

bond_style	fene
bond_coeff	1 30.0 1.5 1.0 1.0

special_bonds	fene
Finding 1-2 1-3 1-4 neighbors ...
     2 = max # of 1-2 neighbors
     2 = max # of special neighbors

# Specify initial velocities

velocity	all create 1.4 109345

# Specify rigid components

group		rods type 2
4000 atoms in group rods
group		tethers	subtract all rods
1600 atoms in group tethers

neigh_modify 	exclude	molecule/intra rods delay 0 every 1

# Specify the pair potentials

pair_style	lj/cut	2.5
pair_modify	shift	yes
pair_coeff	* * 1.0	1.0 1.122
pair_coeff	2 2 1.0 1.0 2.5

# Specify output

thermo	100
thermo_style custom step temp pe etotal press enthalpy lx ly lz pxx pyy pzz
thermo_modify flush yes lost warn

timestep	0.005

fix	1	rods	rigid molecule
  800 rigid bodies with 4000 atoms
fix	2	tethers	nve
fix	3	all	langevin 1.4 1.4 1.0 437624

run	5000
Generated 0 of 1 mixed pair_coeff terms from geometric mixing rule
Step          Temp          PotEng         TotEng         Press         Enthalpy          Lx             Ly             Lz            Pxx            Pyy            Pzz
0   1.3963219      5.9478449      7.0445809      0.048565317    9.13595        62.244         62.244         62.244         0.0091983659   0.11850113     0.017996458
Averages over the last 26 of 51 rows, steps 2500 to 5000:
Temp PotEng TotEng Press Enthalpy Lx Ly Lz Pxx Pyy Pzz
1.40046 5.91013 7.01012 0.00427835 7.19436 62.244 62.244 62.244 0.00541672 0.00407324 0.0033451
Loop time of 4.6238 on 8 procs for 5000 steps with 5600 atoms

# Replace fix rigid and fix langevin with new ones

unfix	1
unfix	3

fix	3	tethers langevin 1.4 1.4 1.0 198450

# Test different integrators for rods

fix	1 rods	rigid/nve molecule
  800 rigid bodies with 4000 atoms
print 	"rigid/nve"
rigid/nve
run	1000
Generated 0 of 1 mixed pair_coeff terms from geometric mixing rule
Step          Temp          PotEng         TotEng         Press         Enthalpy          Lx             Ly             Lz            Pxx            Pyy            Pzz
5000   1.4012863      5.9005727      7.001208      -0.0088271832   6.6210829      62.244         62.244         62.244        -0.038235203    0.039940521   -0.028186867
Averages over the last 6 of 11 rows, steps 5500 to 6000:
Temp PotEng TotEng Press Enthalpy Lx Ly Lz Pxx Pyy Pzz
1.41213 5.88285 6.992 0.00549528 7.22864 62.244 62.244 62.244 0.00418363 0.00667265 0.00562956
Loop time of 1.09829 on 8 procs for 1000 steps with 5600 atoms

unfix	1

fix	1 rods	rigid/nvt molecule temp 1.4 1.4 1.0
  800 rigid bodies with 4000 atoms
print 	"rigid/nvt"
rigid/nvt
run	1000
Generated 0 of 1 mixed pair_coeff terms from geometric mixing rule
Step          Temp          PotEng         TotEng         Press         Enthalpy          Lx             Ly             Lz            Pxx            Pyy            Pzz
6000   1.416106       5.8764996      6.988775      -0.0030991273   6.8553172      62.244         62.244         62.244         0.056341504    0.0062937477  -0.071932633
Averages over the last 6 of 11 rows, steps 6500 to 7000:
Temp PotEng TotEng Press Enthalpy Lx Ly Lz Pxx Pyy Pzz
1.39057 5.8778 6.97002 0.0025429 7.07953 62.244 62.244 62.244 0.00243685 0.00324181 0.00195005
Loop time of 1.09835 on 8 procs for 1000 steps with 5600 atoms

unfix	1

compute	myTemp all temp

fix	1 rods	rigid/npt molecule temp 1.4 1.4 1.0 iso 0.05 0.05 1.0         dilate all
  800 rigid bodies with 4000 atoms
print 	"rigid/npt iso"
rigid/npt iso
fix_modify 1 temp myTemp

run	1000
Generated 0 of 1 mixed pair_coeff terms from geometric mixing rule
Step          Temp          PotEng         TotEng         Press         Enthalpy          Lx             Ly             Lz            Pxx            Pyy            Pzz
7000   1.4177533      5.8740438      6.9876131     -0.0015957467   6.9188954      62.244         62.244         62.244        -0.013282649    0.0023589843   0.0061364244
Averages over the last 6 of 11 rows, steps 7500 to 8000:
Temp PotEng TotEng Press Enthalpy Lx Ly Lz Pxx Pyy Pzz
1.51585 5.62991 6.82053 0.0533768 7.22843 35.1161 35.1161 35.1161 0.0483822 0.0549769 0.0567712
Loop time of 1.7731 on 8 procs for 1000 steps with 5600 atoms

unfix	1

fix	1 rods	rigid/npt molecule temp 1.4 1.4 1.0 x 0.05 0.05 1.0 dilate all
  800 rigid bodies with 4000 atoms
print 	"rigid/npt x"
rigid/npt x
run	1000
Generated 0 of 1 mixed pair_coeff terms from geometric mixing rule
Step          Temp          PotEng         TotEng         Press         Enthalpy          Lx             Ly             Lz            Pxx            Pyy            Pzz
8000   1.4899146      5.5444641      6.7147121      0.027591186    6.8837836      32.495957      32.495957      32.495957     -0.17163811     0.18273774     0.071673934
Averages over the last 6 of 11 rows, steps 8500 to 9000:
Temp PotEng TotEng Press Enthalpy Lx Ly Lz Pxx Pyy Pzz
1.43369 5.41274 6.53883 0.0262209 6.68153 28.7519 32.496 32.496 0.035808 0.0240895 0.0187652
Loop time of 1.73224 on 8 procs for 1000 steps with 5600 atoms

unfix	1

fix	1 rods	rigid/nph molecule iso 0.05 0.05 1.0 dilate all
  800 rigid bodies with 4000 atoms
print 	"rigid/nph iso"
rigid/nph iso
run	1000
Generated 0 of 1 mixed pair_coeff terms from geometric mixing rule
Step          Temp          PotEng         TotEng         Press         Enthalpy          Lx             Ly             Lz            Pxx            Pyy            Pzz
9000   1.4402546      5.3852047      6.5164476      0.19255136     7.5134787      27.459429      32.495957      32.495957      0.43748114     0.075391746    0.06478119
Averages over the last 6 of 11 rows, steps 9500 to 10000:
Temp PotEng TotEng Press Enthalpy Lx Ly Lz Pxx Pyy Pzz
1.45603 5.24698 6.39062 0.0563865 6.6427 26.1406 30.9353 30.9353 0.0536042 0.0544047 0.0611507
Loop time of 1.83855 on 8 procs for 1000 steps with 5600 atoms

unfix	1

fix	1 rods	rigid/nph molecule x 0.05 0.05 1.0 y 0.05 0.05 1.0         couple xy dilate all
  800 rigid bodies with 4000 atoms
print 	"rigid/nph xy couple"
rigid/nph xy couple
run	1000
Generated 0 of 1 mixed pair_coeff terms from geometric mixing rule
Step          Temp          PotEng         TotEng         Press         Enthalpy          Lx             Ly             Lz            Pxx            Pyy            Pzz
10000   1.4629848      5.2180756      6.3671718     -0.0057424146   6.3421868      25.911914      30.664601      30.664601      0.066611291    0.15868357    -0.2425221
Averages over the last 6 of 11 rows, steps 10500 to 11000:
Temp PotEng TotEng Press Enthalpy Lx Ly Lz Pxx Pyy Pzz
1.43369 5.14758 6.27367 0.0686531 6.55253 25.0602 29.6567 30.6646 0.0649917 0.0629669 0.0780006
Loop time of 1.78457 on 8 procs for 1000 steps with 5600 atoms
