LAMMPS (28 Mar 2023 - Development)
# Compute elastic constant tensor for a crystal at finite temperature
#
# WARNING: This script attempts to measure small differences in
# statistical averages generated by finite temperature MD simulations.
# This creates many more opportunities for errors to occur, compared
# to the zero temperature version provided in examples/ELASTIC.
# Hence, it is always a good idea to start with the zero temperature
# calculation, before attempting to use this script.
#
# Written by Aidan Thompson (Sandia, athomps@sandia.gov)
#
#  This script uses the following three include files.
#
#   init.mod      (must be modified for different crystal structures)
# 	       	  Define units, MD parameters, deformation parameters,
#		  and initial configuration of the atoms and simulation cell.
#
#
#   potential.mod    (must be modified for different pair styles)
# 		     Define pair style and other attributes
#		     not stored in restart file
#
#
#   displace.mod    (displace.mod should not need to be modified)
# 		    Perform positive and negative box displacements
# 		    It uses the resultant changes
#		    in stress to compute one
# 		    row of the elastic stiffness tensor
#
#		    Inputs variables:
#		    	   dir = the Voigt deformation component
#		    		    (1,2,3,4,5,6)
#		    Global constants:
#       	    	   up = the deformation magnitude (strain units)
#       		   cfac = conversion from LAMMPS pressure units to
#               	   output units for elastic constants
#
#
#  To run this on a different system, it should only be necessary to
#  modify the files init.mod and potential.mod. In order to calculate
#  the elastic constants correctly, care must be taken to specify
#  the correct units in init.mod (units, cfac and cunits). It is also
#  important to verify that the MD sampling of stress components
#  is generating accurate statistical averages.
#  One indication of this is that the elastic constants are insensitive
#  check for finite size effects.
#

include init.mod
# NOTE: This script can be modified for different atomic structures,
# units, etc. See in.elastic for more info.
#

# Define the finite deformation size. Try several values of this
# variable to verify that results do not depend on it.
variable up equal 2.0e-2

# metal units, elastic constants in GPa
units		metal
variable cfac equal 1.0e-4
variable cunits string GPa

# Define MD parameters
variable nevery equal 10                  # sampling interval
variable nrepeat equal 10                 # number of samples
variable nfreq equal 10*10
variable nthermo equal 100
variable nequil equal 10*100
variable nrun equal 3*100
variable temp equal 2000.0                # temperature of initial sample
variable timestep equal 0.001             # timestep
variable mass1 equal 28.06                # mass
variable adiabatic equal 0                # adiabatic (1) or isothermal (2)
variable tdamp equal 0.01                 # time constant for thermostat
variable seed equal 123457                # seed for thermostat

# generate the box and atom positions using a diamond lattice
variable a equal 5.431

boundary	p p p

lattice         diamond $a
lattice         diamond 5.431
Lattice spacing in x,y,z = 5.431 5.431 5.431
region		box prism 0 3.0 0 3.0 0 3.0 0.0 0.0 0.0
create_box	1 box
Created triclinic box = (0 0 0) to (16.293 16.293 16.293) with tilt (0 0 0)
create_atoms	1 box
Created 216 atoms
mass 1 28.06
velocity	all create 2000 87287

# Compute initial state

variable thermostat equal 1
include potential.mod
# NOTE: This script can be modified for different pair styles
# See in.elastic for more info.

# must undefine fix ave/time before resetting the timestep
if "$(is_defined(fix,avp))" then "unfix avp"
reset_timestep 0

# Choose potential
pair_style	sw
pair_coeff * * Si.sw Si
Reading sw potential file Si.sw with DATE: 2007-06-11

# Setup neighbor style
neighbor 1.0 nsq
neigh_modify once no every 1 delay 0 check yes

# Setup output

fix avp all ave/time  10 10 100 c_thermo_press mode vector
thermo		100
thermo_style custom step temp pe press f_avp[1] f_avp[2] f_avp[3] f_avp[4] f_avp[5] f_avp[6]
thermo_modify norm no

# Setup MD

timestep 0.001
fix 4 all nve
fix 5 all langevin 2000 2000 0.01 123457

run 1000
Step          Temp          PotEng         Press         f_avp[1]       f_avp[2]       f_avp[3]       f_avp[4]       f_avp[5]       f_avp[6]
0   2000          -936.7056       13698.023      0              0              0              0              0              0
Averages over the last 6 of 11 rows, steps 500 to 1000:
Temp PotEng Press f_avp[1] f_avp[2] f_avp[3] f_avp[4] f_avp[5] f_avp[6]
2023.45 -874.089 18129 17732.7 17355.8 17330.4 2056.96 -86.4272 -58.0303
Loop time of 0.212943 on 8 procs for 1000 steps with 216 atoms

variable thermostat equal 1

print 1
1

include potential.mod
# NOTE: This script can be modified for different pair styles
# See in.elastic for more info.

# must undefine fix ave/time before resetting the timestep
if "$(is_defined(fix,avp))" then "unfix avp"
unfix avp
reset_timestep 0

# Choose potential
pair_style	sw
pair_coeff * * Si.sw Si
Reading sw potential file Si.sw with DATE: 2007-06-11

# Setup neighbor style
neighbor 1.0 nsq
neigh_modify once no every 1 delay 0 check yes

# Setup output

fix avp all ave/time  10 10 100 c_thermo_press mode vector
thermo		100
thermo_style custom step temp pe press f_avp[1] f_avp[2] f_avp[3] f_avp[4] f_avp[5] f_avp[6]
thermo_modify norm no

# Setup MD

timestep 0.001
fix 4 all nve
fix 5 all langevin 2000 2000 0.01 123457

run 300
Step          Temp          PotEng         Press         f_avp[1]       f_avp[2]       f_avp[3]       f_avp[4]       f_avp[5]       f_avp[6]
0   1932.9542     -869.42063      19037.213      0              0              0              0              0              0
Loop time of 0.0466587 on 8 procs for 300 steps with 216 atoms

variable pxx0 equal f_avp[1]
variable pyy0 equal f_avp[2]
variable pzz0 equal f_avp[3]
variable pxy0 equal f_avp[4]
variable pxz0 equal f_avp[5]
variable pyz0 equal f_avp[6]

variable tmp equal lx
variable lx0 equal 16.293
variable tmp equal ly
variable ly0 equal 16.293
variable tmp equal lz
variable lz0 equal 16.293

# These formulas define the derivatives w.r.t. strain components
# Constants uses $, variables use v_
variable d1 equal -(v_pxx1-16455.04440855)/(v_delta/v_len0)*0.0001
variable d2 equal -(v_pyy1-16380.1076191558)/(v_delta/v_len0)*0.0001
variable d3 equal -(v_pzz1-18213.4120843484)/(v_delta/v_len0)*0.0001
variable d4 equal -(v_pyz1--278.216657568161)/(v_delta/v_len0)*0.0001
variable d5 equal -(v_pxz1--2841.38464506173)/(v_delta/v_len0)*0.0001
variable d6 equal -(v_pxy1-1207.13062423142)/(v_delta/v_len0)*0.0001

# Write restart
write_restart restart.equil
System init for write_restart ...

# uxx Perturbation

variable dir equal 1
include displace.mod
# NOTE: This script should not need to be
# modified. See in.elastic for more info.
#
# Find which reference length to use

variable len0 equal 16.293

# Reset box and simulation parameters

clear
box tilt large

The 'box' command has been removed and will be ignored

read_restart restart.equil
Reading restart file ...
  restart file = 28 Mar 2023, LAMMPS = 28 Mar 2023
  restoring atom style atomic from restart
  triclinic box = (0 0 0) to (16.293 16.293 16.293) with tilt (0 0 0)
  pair style sw stores no restart info
  216 atoms
  read_restart CPU = 0.001 seconds
include potential.mod
# NOTE: This script can be modified for different pair styles
# See in.elastic for more info.

# must undefine fix ave/time before resetting the timestep
if "$(is_defined(fix,avp))" then "unfix avp"
reset_timestep 0

# Choose potential
pair_style	sw
pair_coeff * * Si.sw Si
Reading sw potential file Si.sw with DATE: 2007-06-11

# Setup neighbor style
neighbor 1.0 nsq
neigh_modify once no every 1 delay 0 check yes

# Setup output

fix avp all ave/time  10 10 100 c_thermo_press mode vector
thermo		100
thermo_style custom step temp pe press f_avp[1] f_avp[2] f_avp[3] f_avp[4] f_avp[5] f_avp[6]
thermo_modify norm no

# Setup MD

timestep 0.001
fix 4 all nve
fix 5 all langevin 2000 2000 0.01 123457

# Negative deformation

variable delta equal -0.02*16.293
variable deltaxy equal -0.02*xy
variable deltaxz equal -0.02*xz
variable deltayz equal -0.02*yz
change_box all x delta 0 -0.32586 xy delta -0 xz delta -0 remap units box
Changing box ...
  triclinic box = (0 0 0) to (15.96714 16.293 16.293) with tilt (0 0 0)
  triclinic box = (0 0 0) to (15.96714 16.293 16.293) with tilt (0 0 0)
  triclinic box = (0 0 0) to (15.96714 16.293 16.293) with tilt (0 0 0)

# Run MD

run 1000
Step          Temp          PotEng         Press         f_avp[1]       f_avp[2]       f_avp[3]       f_avp[4]       f_avp[5]       f_avp[6]
0   2155.8855     -875.48293      37741.312      0              0              0              0              0              0
Averages over the last 6 of 11 rows, steps 500 to 1000:
Temp PotEng Press f_avp[1] f_avp[2] f_avp[3] f_avp[4] f_avp[5] f_avp[6]
1989.12 -874.909 36543.5 43114 34484.8 34395 1688.97 258.021 -1119.37
Loop time of 0.181311 on 8 procs for 1000 steps with 216 atoms

include potential.mod
# NOTE: This script can be modified for different pair styles
# See in.elastic for more info.

# must undefine fix ave/time before resetting the timestep
if "$(is_defined(fix,avp))" then "unfix avp"
unfix avp
reset_timestep 0

# Choose potential
pair_style	sw
pair_coeff * * Si.sw Si
Reading sw potential file Si.sw with DATE: 2007-06-11

# Setup neighbor style
neighbor 1.0 nsq
neigh_modify once no every 1 delay 0 check yes

# Setup output

fix avp all ave/time  10 10 100 c_thermo_press mode vector
thermo		100
thermo_style custom step temp pe press f_avp[1] f_avp[2] f_avp[3] f_avp[4] f_avp[5] f_avp[6]
thermo_modify norm no

# Setup MD

timestep 0.001
fix 4 all nve
fix 5 all langevin 2000 2000 0.01 123457

run 300
Step          Temp          PotEng         Press         f_avp[1]       f_avp[2]       f_avp[3]       f_avp[4]       f_avp[5]       f_avp[6]
0   2143.7552     -872.5148       39916.056      0              0              0              0              0              0
Loop time of 0.0537162 on 8 procs for 300 steps with 216 atoms

# Obtain new stress tensor

variable pxx1 equal f_avp[1]
variable pyy1 equal f_avp[2]
variable pzz1 equal f_avp[3]
variable pxy1 equal f_avp[4]
variable pxz1 equal f_avp[5]
variable pyz1 equal f_avp[6]

# Compute elastic constant from pressure tensor

variable C1neg equal 126.778481829785
variable C2neg equal 71.4777796121415
variable C3neg equal 81.9581075222585
variable C4neg equal -18.2941794183687
variable C5neg equal 9.42844339171094
variable C6neg equal 6.17309182214525

# Reset box and simulation parameters

clear
box tilt large

The 'box' command has been removed and will be ignored

read_restart restart.equil
Reading restart file ...
  restart file = 28 Mar 2023, LAMMPS = 28 Mar 2023
  restoring atom style atomic from restart
  triclinic box = (0 0 0) to (16.293 16.293 16.293) with tilt (0 0 0)
  pair style sw stores no restart info
  216 atoms
  read_restart CPU = 0.001 seconds
include potential.mod
# NOTE: This script can be modified for different pair styles
# See in.elastic for more info.

# must undefine fix ave/time before resetting the timestep
if "$(is_defined(fix,avp))" then "unfix avp"
reset_timestep 0

# Choose potential
pair_style	sw
pair_coeff * * Si.sw Si
Reading sw potential file Si.sw with DATE: 2007-06-11

# Setup neighbor style
neighbor 1.0 nsq
neigh_modify once no every 1 delay 0 check yes

# Setup output

fix avp all ave/time  10 10 100 c_thermo_press mode vector
thermo		100
thermo_style custom step temp pe press f_avp[1] f_avp[2] f_avp[3] f_avp[4] f_avp[5] f_avp[6]
thermo_modify norm no

# Setup MD

timestep 0.001
fix 4 all nve
fix 5 all langevin 2000 2000 0.01 123457

# Positive deformation

variable delta equal 0.02*16.293
variable deltaxy equal 0.02*xy
variable deltaxz equal 0.02*xz
variable deltayz equal 0.02*yz
change_box all x delta 0 0.32586 xy delta 0 xz delta 0 remap units box
Changing box ...
  triclinic box = (0 0 0) to (16.61886 16.293 16.293) with tilt (0 0 0)
  triclinic box = (0 0 0) to (16.61886 16.293 16.293) with tilt (0 0 0)
  triclinic box = (0 0 0) to (16.61886 16.293 16.293) with tilt (0 0 0)

# Run MD

run 1000
Step          Temp          PotEng         Press         f_avp[1]       f_avp[2]       f_avp[3]       f_avp[4]       f_avp[5]       f_avp[6]
0   2155.8855     -875.42227     -3544.3909      0              0              0              0              0              0
Averages over the last 6 of 11 rows, steps 500 to 1000:
Temp PotEng Press f_avp[1] f_avp[2] f_avp[3] f_avp[4] f_avp[5] f_avp[6]
2067.27 -874.577 -1823.51 -8533.35 1713.44 2213.1 2040.75 -723.423 -468.332
Loop time of 0.168084 on 8 procs for 1000 steps with 216 atoms

include potential.mod
# NOTE: This script can be modified for different pair styles
# See in.elastic for more info.

# must undefine fix ave/time before resetting the timestep
if "$(is_defined(fix,avp))" then "unfix avp"
unfix avp
reset_timestep 0

# Choose potential
pair_style	sw
pair_coeff * * Si.sw Si
Reading sw potential file Si.sw with DATE: 2007-06-11

# Setup neighbor style
neighbor 1.0 nsq
neigh_modify once no every 1 delay 0 check yes

# Setup output

fix avp all ave/time  10 10 100 c_thermo_press mode vector
thermo		100
thermo_style custom step temp pe press f_avp[1] f_avp[2] f_avp[3] f_avp[4] f_avp[5] f_avp[6]
thermo_modify norm no

# Setup MD

timestep 0.001
fix 4 all nve
fix 5 all langevin 2000 2000 0.01 123457

run 300
Step          Temp          PotEng         Press         f_avp[1]       f_avp[2]       f_avp[3]       f_avp[4]       f_avp[5]       f_avp[6]
0   2001.8775     -872.18969     -1919.6741      0              0              0              0              0              0
Loop time of 0.0585086 on 8 procs for 300 steps with 216 atoms

# Obtain new stress tensor

variable tmp equal pe
variable e1 equal -876.903823262972
variable tmp equal press
variable p1 equal -2544.38729278309
variable tmp equal pxx
variable pxx1 equal -10068.1339282533
variable tmp equal pyy
variable pyy1 equal -115.024759428644
variable tmp equal pzz
variable pzz1 equal 2549.99680933268
variable tmp equal pxy
variable pxy1 equal 2750.28203361138
variable tmp equal pxz
variable pxz1 equal 16032.8930587175
variable tmp equal pyz
variable pyz1 equal -3220.90310056816

# Compute elastic constant from pressure tensor

variable C1pos equal 132.615891684017
variable C2pos equal 82.4756618929222
variable C3pos equal 78.3170763750786
variable C4pos equal 14.713432215
variable C5pos equal -94.3713885188961
variable C6pos equal -7.7157570468998

# Combine positive and negative

variable C11 equal 0.5*(126.778481829785+132.615891684017)
variable C21 equal 0.5*(71.4777796121415+82.4756618929222)
variable C31 equal 0.5*(81.9581075222585+78.3170763750786)
variable C41 equal 0.5*(-18.2941794183687+14.713432215)
variable C51 equal 0.5*(9.42844339171094+-94.3713885188961)
variable C61 equal 0.5*(6.17309182214525+-7.7157570468998)

# Delete dir to make sure it is not reused

variable dir delete

# uyy Perturbation

variable dir equal 2
include displace.mod
# NOTE: This script should not need to be
# modified. See in.elastic for more info.
#
# Find which reference length to use

variable len0 equal 16.293

# Reset box and simulation parameters

clear
box tilt large

The 'box' command has been removed and will be ignored

read_restart restart.equil
Reading restart file ...
  restart file = 28 Mar 2023, LAMMPS = 28 Mar 2023
  restoring atom style atomic from restart
  triclinic box = (0 0 0) to (16.293 16.293 16.293) with tilt (0 0 0)
  pair style sw stores no restart info
  216 atoms
  read_restart CPU = 0.001 seconds
include potential.mod
# NOTE: This script can be modified for different pair styles
# See in.elastic for more info.

# must undefine fix ave/time before resetting the timestep
if "$(is_defined(fix,avp))" then "unfix avp"
reset_timestep 0

# Choose potential
pair_style	sw
pair_coeff * * Si.sw Si
Reading sw potential file Si.sw with DATE: 2007-06-11

# Setup neighbor style
neighbor 1.0 nsq
neigh_modify once no every 1 delay 0 check yes

# Setup output

fix avp all ave/time  10 10 100 c_thermo_press mode vector
thermo		100
thermo_style custom step temp pe press f_avp[1] f_avp[2] f_avp[3] f_avp[4] f_avp[5] f_avp[6]
thermo_modify norm no

# Setup MD

timestep 0.001
fix 4 all nve
fix 5 all langevin 2000 2000 0.01 123457

# Negative deformation

variable delta equal -0.02*16.293
variable deltaxy equal -0.02*xy
variable deltaxz equal -0.02*xz
variable deltayz equal -0.02*yz
change_box all y delta 0 -0.32586 yz delta -0 remap units box
Changing box ...
  triclinic box = (0 0 0) to (16.293 15.96714 16.293) with tilt (0 0 0)
  triclinic box = (0 0 0) to (16.293 15.96714 16.293) with tilt (0 0 0)

# Run MD

run 1000
Step          Temp          PotEng         Press         f_avp[1]       f_avp[2]       f_avp[3]       f_avp[4]       f_avp[5]       f_avp[6]
0   2155.8855     -875.40932      37377.748      0              0              0              0              0              0
Averages over the last 6 of 11 rows, steps 500 to 1000:
Temp PotEng Press f_avp[1] f_avp[2] f_avp[3] f_avp[4] f_avp[5] f_avp[6]
2021.02 -873.392 37481.8 34395.3 44488.3 34613.7 1044.4 -526.719 -1034.28
Loop time of 0.216386 on 8 procs for 1000 steps with 216 atoms

include potential.mod
# NOTE: This script can be modified for different pair styles
# See in.elastic for more info.

# must undefine fix ave/time before resetting the timestep
if "$(is_defined(fix,avp))" then "unfix avp"
unfix avp
reset_timestep 0

# Choose potential
pair_style	sw
pair_coeff * * Si.sw Si
Reading sw potential file Si.sw with DATE: 2007-06-11

# Setup neighbor style
neighbor 1.0 nsq
neigh_modify once no every 1 delay 0 check yes

# Setup output

fix avp all ave/time  10 10 100 c_thermo_press mode vector
thermo		100
thermo_style custom step temp pe press f_avp[1] f_avp[2] f_avp[3] f_avp[4] f_avp[5] f_avp[6]
thermo_modify norm no

# Setup MD

timestep 0.001
fix 4 all nve
fix 5 all langevin 2000 2000 0.01 123457

run 300
Step          Temp          PotEng         Press         f_avp[1]       f_avp[2]       f_avp[3]       f_avp[4]       f_avp[5]       f_avp[6]
0   2125.807      -875.34704      37091.678      0              0              0              0              0              0
Loop time of 0.0510651 on 8 procs for 300 steps with 216 atoms

# Obtain new stress tensor

variable pxx1 equal f_avp[1]
variable pyy1 equal f_avp[2]
variable pzz1 equal f_avp[3]
variable pxy1 equal f_avp[4]
variable pxz1 equal f_avp[5]
variable pyz1 equal f_avp[6]

# Compute elastic constant from pressure tensor

variable C1neg equal 93.8346398585075
variable C2neg equal 135.819907388119
variable C3neg equal 85.58968653005
variable C4neg equal -7.45207879960399
variable C5neg equal 33.1305351935714
variable C6neg equal -5.64404571201776

# Reset box and simulation parameters

clear
box tilt large

The 'box' command has been removed and will be ignored

read_restart restart.equil
Reading restart file ...
  restart file = 28 Mar 2023, LAMMPS = 28 Mar 2023
  restoring atom style atomic from restart
  triclinic box = (0 0 0) to (16.293 16.293 16.293) with tilt (0 0 0)
  pair style sw stores no restart info
  216 atoms
  read_restart CPU = 0.001 seconds
include potential.mod
# NOTE: This script can be modified for different pair styles
# See in.elastic for more info.

# must undefine fix ave/time before resetting the timestep
if "$(is_defined(fix,avp))" then "unfix avp"
reset_timestep 0

# Choose potential
pair_style	sw
pair_coeff * * Si.sw Si
Reading sw potential file Si.sw with DATE: 2007-06-11

# Setup neighbor style
neighbor 1.0 nsq
neigh_modify once no every 1 delay 0 check yes

# Setup output

fix avp all ave/time  10 10 100 c_thermo_press mode vector
thermo		100
thermo_style custom step temp pe press f_avp[1] f_avp[2] f_avp[3] f_avp[4] f_avp[5] f_avp[6]
thermo_modify norm no

# Setup MD

timestep 0.001
fix 4 all nve
fix 5 all langevin 2000 2000 0.01 123457

# Positive deformation

variable delta equal 0.02*16.293
variable deltaxy equal 0.02*xy
variable deltaxz equal 0.02*xz
variable deltayz equal 0.02*yz
change_box all y delta 0 0.32586 yz delta 0 remap units box
Changing box ...
  triclinic box = (0 0 0) to (16.293 16.61886 16.293) with tilt (0 0 0)
  triclinic box = (0 0 0) to (16.293 16.61886 16.293) with tilt (0 0 0)

# Run MD

run 1000
Step          Temp          PotEng         Press         f_avp[1]       f_avp[2]       f_avp[3]       f_avp[4]       f_avp[5]       f_avp[6]
0   2155.8855     -875.53307     -3258.381       0              0              0              0              0              0
Averages over the last 6 of 11 rows, steps 500 to 1000:
Temp PotEng Press f_avp[1] f_avp[2] f_avp[3] f_avp[4] f_avp[5] f_avp[6]
1988.24 -873.16 -2027.96 794.526 -8344.71 918.615 -2029.42 1663.71 1768.47
Loop time of 0.15197 on 8 procs for 1000 steps with 216 atoms

include potential.mod
# NOTE: This script can be modified for different pair styles
# See in.elastic for more info.

# must undefine fix ave/time before resetting the timestep
if "$(is_defined(fix,avp))" then "unfix avp"
unfix avp
reset_timestep 0

# Choose potential
pair_style	sw
pair_coeff * * Si.sw Si
Reading sw potential file Si.sw with DATE: 2007-06-11

# Setup neighbor style
neighbor 1.0 nsq
neigh_modify once no every 1 delay 0 check yes

# Setup output

fix avp all ave/time  10 10 100 c_thermo_press mode vector
thermo		100
thermo_style custom step temp pe press f_avp[1] f_avp[2] f_avp[3] f_avp[4] f_avp[5] f_avp[6]
thermo_modify norm no

# Setup MD

timestep 0.001
fix 4 all nve
fix 5 all langevin 2000 2000 0.01 123457

run 300
Step          Temp          PotEng         Press         f_avp[1]       f_avp[2]       f_avp[3]       f_avp[4]       f_avp[5]       f_avp[6]
0   2050.5821     -875.14464     -2310.8775      0              0              0              0              0              0
Loop time of 0.0482136 on 8 procs for 300 steps with 216 atoms

# Obtain new stress tensor

variable tmp equal pe
variable e1 equal -874.210802821295
variable tmp equal press
variable p1 equal -708.326980976382
variable tmp equal pxx
variable pxx1 equal 5771.08053204271
variable tmp equal pyy
variable pyy1 equal -7046.78043689355
variable tmp equal pzz
variable pzz1 equal -849.281038078303
variable tmp equal pxy
variable pxy1 equal -4402.3508408312
variable tmp equal pxz
variable pxz1 equal 2434.5737261497
variable tmp equal pyz
variable pyz1 equal 3100.83607247954

# Compute elastic constant from pressure tensor

variable C1pos equal 53.4198193825364
variable C2pos equal 117.134440280247
variable C3pos equal 95.3134656121335
variable C4pos equal -16.8952636502385
variable C5pos equal -26.3797918560572
variable C6pos equal 28.0474073253131

# Combine positive and negative

variable C12 equal 0.5*(93.8346398585075+53.4198193825364)
variable C22 equal 0.5*(135.819907388119+117.134440280247)
variable C32 equal 0.5*(85.58968653005+95.3134656121335)
variable C42 equal 0.5*(-7.45207879960399+-16.8952636502385)
variable C52 equal 0.5*(33.1305351935714+-26.3797918560572)
variable C62 equal 0.5*(-5.64404571201776+28.0474073253131)

# Delete dir to make sure it is not reused

variable dir delete

# uzz Perturbation

variable dir equal 3
include displace.mod
# NOTE: This script should not need to be
# modified. See in.elastic for more info.
#
# Find which reference length to use

variable len0 equal 16.293

# Reset box and simulation parameters

clear
box tilt large

The 'box' command has been removed and will be ignored

read_restart restart.equil
Reading restart file ...
  restart file = 28 Mar 2023, LAMMPS = 28 Mar 2023
  restoring atom style atomic from restart
  triclinic box = (0 0 0) to (16.293 16.293 16.293) with tilt (0 0 0)
  pair style sw stores no restart info
  216 atoms
  read_restart CPU = 0.001 seconds
include potential.mod
# NOTE: This script can be modified for different pair styles
# See in.elastic for more info.

# must undefine fix ave/time before resetting the timestep
if "$(is_defined(fix,avp))" then "unfix avp"
reset_timestep 0

# Choose potential
pair_style	sw
pair_coeff * * Si.sw Si
Reading sw potential file Si.sw with DATE: 2007-06-11

# Setup neighbor style
neighbor 1.0 nsq
neigh_modify once no every 1 delay 0 check yes

# Setup output

fix avp all ave/time  10 10 100 c_thermo_press mode vector
thermo		100
thermo_style custom step temp pe press f_avp[1] f_avp[2] f_avp[3] f_avp[4] f_avp[5] f_avp[6]
thermo_modify norm no

# Setup MD

timestep 0.001
fix 4 all nve
fix 5 all langevin 2000 2000 0.01 123457

# Negative deformation

variable delta equal -0.02*16.293
variable deltaxy equal -0.02*xy
variable deltaxz equal -0.02*xz
variable deltayz equal -0.02*yz
change_box all z delta 0 -0.32586 remap units box
Changing box ...
  triclinic box = (0 0 0) to (16.293 16.293 15.96714) with tilt (0 0 0)

# Run MD

run 1000
Step          Temp          PotEng         Press         f_avp[1]       f_avp[2]       f_avp[3]       f_avp[4]       f_avp[5]       f_avp[6]
0   2155.8855     -875.21334      37512.943      0              0              0              0              0              0
Averages over the last 6 of 11 rows, steps 500 to 1000:
Temp PotEng Press f_avp[1] f_avp[2] f_avp[3] f_avp[4] f_avp[5] f_avp[6]
1933.17 -870.38 37307.7 32445.2 34215.2 43135.5 1801.92 179.101 1040.91
Loop time of 0.215263 on 8 procs for 1000 steps with 216 atoms

include potential.mod
# NOTE: This script can be modified for different pair styles
# See in.elastic for more info.

# must undefine fix ave/time before resetting the timestep
if "$(is_defined(fix,avp))" then "unfix avp"
unfix avp
reset_timestep 0

# Choose potential
pair_style	sw
pair_coeff * * Si.sw Si
Reading sw potential file Si.sw with DATE: 2007-06-11

# Setup neighbor style
neighbor 1.0 nsq
neigh_modify once no every 1 delay 0 check yes

# Setup output

fix avp all ave/time  10 10 100 c_thermo_press mode vector
thermo		100
thermo_style custom step temp pe press f_avp[1] f_avp[2] f_avp[3] f_avp[4] f_avp[5] f_avp[6]
thermo_modify norm no

# Setup MD

timestep 0.001
fix 4 all nve
fix 5 all langevin 2000 2000 0.01 123457

run 300
Step          Temp          PotEng         Press         f_avp[1]       f_avp[2]       f_avp[3]       f_avp[4]       f_avp[5]       f_avp[6]
0   1882.0311     -877.36464      37254.128      0              0              0              0              0              0
Loop time of 0.0521018 on 8 procs for 300 steps with 216 atoms

# Obtain new stress tensor

variable pxx1 equal f_avp[1]
variable pyy1 equal f_avp[2]
variable pzz1 equal f_avp[3]
variable pxy1 equal f_avp[4]
variable pxz1 equal f_avp[5]
variable pyz1 equal f_avp[6]

# Compute elastic constant from pressure tensor

variable C1neg equal 84.599716335537
variable C2neg equal 97.4136498432355
variable C3neg equal 133.78697948176
variable C4neg equal 6.67621500180911
variable C5neg equal -13.4978460491055
variable C6neg equal -12.7796493760372

# Reset box and simulation parameters

clear
box tilt large

The 'box' command has been removed and will be ignored

read_restart restart.equil
Reading restart file ...
  restart file = 28 Mar 2023, LAMMPS = 28 Mar 2023
  restoring atom style atomic from restart
  triclinic box = (0 0 0) to (16.293 16.293 16.293) with tilt (0 0 0)
  pair style sw stores no restart info
  216 atoms
  read_restart CPU = 0.000 seconds
include potential.mod
# NOTE: This script can be modified for different pair styles
# See in.elastic for more info.

# must undefine fix ave/time before resetting the timestep
if "$(is_defined(fix,avp))" then "unfix avp"
reset_timestep 0

# Choose potential
pair_style	sw
pair_coeff * * Si.sw Si
Reading sw potential file Si.sw with DATE: 2007-06-11

# Setup neighbor style
neighbor 1.0 nsq
neigh_modify once no every 1 delay 0 check yes

# Setup output

fix avp all ave/time  10 10 100 c_thermo_press mode vector
thermo		100
thermo_style custom step temp pe press f_avp[1] f_avp[2] f_avp[3] f_avp[4] f_avp[5] f_avp[6]
thermo_modify norm no

# Setup MD

timestep 0.001
fix 4 all nve
fix 5 all langevin 2000 2000 0.01 123457

# Positive deformation

variable delta equal 0.02*16.293
variable deltaxy equal 0.02*xy
variable deltaxz equal 0.02*xz
variable deltayz equal 0.02*yz
change_box all z delta 0 0.32586 remap units box
Changing box ...
  triclinic box = (0 0 0) to (16.293 16.293 16.61886) with tilt (0 0 0)

# Run MD

run 1000
Step          Temp          PotEng         Press         f_avp[1]       f_avp[2]       f_avp[3]       f_avp[4]       f_avp[5]       f_avp[6]
0   2155.8855     -875.70454     -3466.7566      0              0              0              0              0              0
Averages over the last 6 of 11 rows, steps 500 to 1000:
Temp PotEng Press f_avp[1] f_avp[2] f_avp[3] f_avp[4] f_avp[5] f_avp[6]
2009.22 -873.374 -2084.79 1222.16 1132.85 -8901.22 1234.8 313.806 -364.627
Loop time of 0.152673 on 8 procs for 1000 steps with 216 atoms

include potential.mod
# NOTE: This script can be modified for different pair styles
# See in.elastic for more info.

# must undefine fix ave/time before resetting the timestep
if "$(is_defined(fix,avp))" then "unfix avp"
unfix avp
reset_timestep 0

# Choose potential
pair_style	sw
pair_coeff * * Si.sw Si
Reading sw potential file Si.sw with DATE: 2007-06-11

# Setup neighbor style
neighbor 1.0 nsq
neigh_modify once no every 1 delay 0 check yes

# Setup output

fix avp all ave/time  10 10 100 c_thermo_press mode vector
thermo		100
thermo_style custom step temp pe press f_avp[1] f_avp[2] f_avp[3] f_avp[4] f_avp[5] f_avp[6]
thermo_modify norm no

# Setup MD

timestep 0.001
fix 4 all nve
fix 5 all langevin 2000 2000 0.01 123457

run 300
Step          Temp          PotEng         Press         f_avp[1]       f_avp[2]       f_avp[3]       f_avp[4]       f_avp[5]       f_avp[6]
0   1856.5558     -869.71944      143.06916      0              0              0              0              0              0
Loop time of 0.0449104 on 8 procs for 300 steps with 216 atoms

# Obtain new stress tensor

variable tmp equal pe
variable e1 equal -877.502164165056
variable tmp equal press
variable p1 equal -1205.16848044517
variable tmp equal pxx
variable pxx1 equal 4881.5759815286
variable tmp equal pyy
variable pyy1 equal 1343.31098400171
variable tmp equal pzz
variable pzz1 equal -9840.3924068658
variable tmp equal pxy
variable pxy1 equal 11346.772315561
variable tmp equal pxz
variable pxz1 equal 4305.90135884705
variable tmp equal pyz
variable pyz1 equal 1115.26092542026

# Compute elastic constant from pressure tensor

variable C1pos equal 57.867342135107
variable C2pos equal 75.1839831757705
variable C3pos equal 140.269022456071
variable C4pos equal -6.96738791494211
variable C5pos equal -35.7364300195439
variable C6pos equal -50.6982084566479

# Combine positive and negative

variable C13 equal 0.5*(84.599716335537+57.867342135107)
variable C23 equal 0.5*(97.4136498432355+75.1839831757705)
variable C33 equal 0.5*(133.78697948176+140.269022456071)
variable C43 equal 0.5*(6.67621500180911+-6.96738791494211)
variable C53 equal 0.5*(-13.4978460491055+-35.7364300195439)
variable C63 equal 0.5*(-12.7796493760372+-50.6982084566479)

# Delete dir to make sure it is not reused

variable dir delete

# uyz Perturbation

variable dir equal 4
include displace.mod
# NOTE: This script should not need to be
# modified. See in.elastic for more info.
#
# Find which reference length to use

variable len0 equal 16.293

# Reset box and simulation parameters

clear
box tilt large

The 'box' command has been removed and will be ignored

read_restart restart.equil
Reading restart file ...
  restart file = 28 Mar 2023, LAMMPS = 28 Mar 2023
  restoring atom style atomic from restart
  triclinic box = (0 0 0) to (16.293 16.293 16.293) with tilt (0 0 0)
  pair style sw stores no restart info
  216 atoms
  read_restart CPU = 0.001 seconds
include potential.mod
# NOTE: This script can be modified for different pair styles
# See in.elastic for more info.

# must undefine fix ave/time before resetting the timestep
if "$(is_defined(fix,avp))" then "unfix avp"
reset_timestep 0

# Choose potential
pair_style	sw
pair_coeff * * Si.sw Si
Reading sw potential file Si.sw with DATE: 2007-06-11

# Setup neighbor style
neighbor 1.0 nsq
neigh_modify once no every 1 delay 0 check yes

# Setup output

fix avp all ave/time  10 10 100 c_thermo_press mode vector
thermo		100
thermo_style custom step temp pe press f_avp[1] f_avp[2] f_avp[3] f_avp[4] f_avp[5] f_avp[6]
thermo_modify norm no

# Setup MD

timestep 0.001
fix 4 all nve
fix 5 all langevin 2000 2000 0.01 123457

# Negative deformation

variable delta equal -0.02*16.293
variable deltaxy equal -0.02*xy
variable deltaxz equal -0.02*xz
variable deltayz equal -0.02*yz
change_box all yz delta -0.32586 remap units box
Changing box ...
  triclinic box = (0 0 0) to (16.293 16.293 16.293) with tilt (0 0 -0.32586)

# Run MD

run 1000
Step          Temp          PotEng         Press         f_avp[1]       f_avp[2]       f_avp[3]       f_avp[4]       f_avp[5]       f_avp[6]
0   2155.8855     -875.17601      16633.717      0              0              0              0              0              0
Averages over the last 6 of 11 rows, steps 500 to 1000:
Temp PotEng Press f_avp[1] f_avp[2] f_avp[3] f_avp[4] f_avp[5] f_avp[6]
1982.33 -875.052 15784.9 17139 15945.9 15540.1 -566.926 -2285.38 9951.96
Loop time of 0.162729 on 8 procs for 1000 steps with 216 atoms

include potential.mod
# NOTE: This script can be modified for different pair styles
# See in.elastic for more info.

# must undefine fix ave/time before resetting the timestep
if "$(is_defined(fix,avp))" then "unfix avp"
unfix avp
reset_timestep 0

# Choose potential
pair_style	sw
pair_coeff * * Si.sw Si
Reading sw potential file Si.sw with DATE: 2007-06-11

# Setup neighbor style
neighbor 1.0 nsq
neigh_modify once no every 1 delay 0 check yes

# Setup output

fix avp all ave/time  10 10 100 c_thermo_press mode vector
thermo		100
thermo_style custom step temp pe press f_avp[1] f_avp[2] f_avp[3] f_avp[4] f_avp[5] f_avp[6]
thermo_modify norm no

# Setup MD

timestep 0.001
fix 4 all nve
fix 5 all langevin 2000 2000 0.01 123457

run 300
Step          Temp          PotEng         Press         f_avp[1]       f_avp[2]       f_avp[3]       f_avp[4]       f_avp[5]       f_avp[6]
0   2029.2712     -882.60085      15665.711      0              0              0              0              0              0
Loop time of 0.0512433 on 8 procs for 300 steps with 216 atoms

# Obtain new stress tensor

variable pxx1 equal f_avp[1]
variable pyy1 equal f_avp[2]
variable pzz1 equal f_avp[3]
variable pxy1 equal f_avp[4]
variable pxz1 equal f_avp[5]
variable pyz1 equal f_avp[6]

# Compute elastic constant from pressure tensor

variable C1neg equal 0.539278018780515
variable C2neg equal 12.125890736521
variable C3neg equal 5.6911931412955
variable C4neg equal 11.6859397260587
variable C5neg equal 8.6203438903386
variable C6neg equal -13.4530291822064

# Reset box and simulation parameters

clear
box tilt large

The 'box' command has been removed and will be ignored

read_restart restart.equil
Reading restart file ...
  restart file = 28 Mar 2023, LAMMPS = 28 Mar 2023
  restoring atom style atomic from restart
  triclinic box = (0 0 0) to (16.293 16.293 16.293) with tilt (0 0 0)
  pair style sw stores no restart info
  216 atoms
  read_restart CPU = 0.000 seconds
include potential.mod
# NOTE: This script can be modified for different pair styles
# See in.elastic for more info.

# must undefine fix ave/time before resetting the timestep
if "$(is_defined(fix,avp))" then "unfix avp"
reset_timestep 0

# Choose potential
pair_style	sw
pair_coeff * * Si.sw Si
Reading sw potential file Si.sw with DATE: 2007-06-11

# Setup neighbor style
neighbor 1.0 nsq
neigh_modify once no every 1 delay 0 check yes

# Setup output

fix avp all ave/time  10 10 100 c_thermo_press mode vector
thermo		100
thermo_style custom step temp pe press f_avp[1] f_avp[2] f_avp[3] f_avp[4] f_avp[5] f_avp[6]
thermo_modify norm no

# Setup MD

timestep 0.001
fix 4 all nve
fix 5 all langevin 2000 2000 0.01 123457

# Positive deformation

variable delta equal 0.02*16.293
variable deltaxy equal 0.02*xy
variable deltaxz equal 0.02*xz
variable deltayz equal 0.02*yz
change_box all yz delta 0.32586 remap units box
Changing box ...
  triclinic box = (0 0 0) to (16.293 16.293 16.293) with tilt (0 0 0.32586)

# Run MD

run 1000
Step          Temp          PotEng         Press         f_avp[1]       f_avp[2]       f_avp[3]       f_avp[4]       f_avp[5]       f_avp[6]
0   2155.8855     -876.1916       16184.573      0              0              0              0              0              0
Averages over the last 6 of 11 rows, steps 500 to 1000:
Temp PotEng Press f_avp[1] f_avp[2] f_avp[3] f_avp[4] f_avp[5] f_avp[6]
2065.61 -873.943 17413.6 15884.8 16556.8 17281.3 -182.226 -490.923 -5797.06
Loop time of 0.176548 on 8 procs for 1000 steps with 216 atoms

include potential.mod
# NOTE: This script can be modified for different pair styles
# See in.elastic for more info.

# must undefine fix ave/time before resetting the timestep
if "$(is_defined(fix,avp))" then "unfix avp"
unfix avp
reset_timestep 0

# Choose potential
pair_style	sw
pair_coeff * * Si.sw Si
Reading sw potential file Si.sw with DATE: 2007-06-11

# Setup neighbor style
neighbor 1.0 nsq
neigh_modify once no every 1 delay 0 check yes

# Setup output

fix avp all ave/time  10 10 100 c_thermo_press mode vector
thermo		100
thermo_style custom step temp pe press f_avp[1] f_avp[2] f_avp[3] f_avp[4] f_avp[5] f_avp[6]
thermo_modify norm no

# Setup MD

timestep 0.001
fix 4 all nve
fix 5 all langevin 2000 2000 0.01 123457

run 300
Step          Temp          PotEng         Press         f_avp[1]       f_avp[2]       f_avp[3]       f_avp[4]       f_avp[5]       f_avp[6]
0   2014.9952     -873.61882      18427.371      0              0              0              0              0              0
Loop time of 0.047861 on 8 procs for 300 steps with 216 atoms

# Obtain new stress tensor

variable tmp equal pe
variable e1 equal -875.053994839649
variable tmp equal press
variable p1 equal 17377.2092525721
variable tmp equal pxx
variable pxx1 equal 18099.5772256947
variable tmp equal pyy
variable pyy1 equal 17068.2952432153
variable tmp equal pzz
variable pzz1 equal 16963.7552888064
variable tmp equal pxy
variable pxy1 equal 3838.35560145347
variable tmp equal pxz
variable pxz1 equal -6435.73894139581
variable tmp equal pyz
variable pyz1 equal -4737.75419349877

# Compute elastic constant from pressure tensor

variable C1pos equal -8.2226640857235
variable C2pos equal -3.4409381202975
variable C3pos equal 6.24828397771002
variable C4pos equal 22.297687679653
variable C5pos equal 17.9717714816704
variable C6pos equal -13.1561248861103

# Combine positive and negative

variable C14 equal 0.5*(0.539278018780515+-8.2226640857235)
variable C24 equal 0.5*(12.125890736521+-3.4409381202975)
variable C34 equal 0.5*(5.6911931412955+6.24828397771002)
variable C44 equal 0.5*(11.6859397260587+22.297687679653)
variable C54 equal 0.5*(8.6203438903386+17.9717714816704)
variable C64 equal 0.5*(-13.4530291822064+-13.1561248861103)

# Delete dir to make sure it is not reused

variable dir delete

# uxz Perturbation

variable dir equal 5
include displace.mod
# NOTE: This script should not need to be
# modified. See in.elastic for more info.
#
# Find which reference length to use

variable len0 equal 16.293

# Reset box and simulation parameters

clear
box tilt large

The 'box' command has been removed and will be ignored

read_restart restart.equil
Reading restart file ...
  restart file = 28 Mar 2023, LAMMPS = 28 Mar 2023
  restoring atom style atomic from restart
  triclinic box = (0 0 0) to (16.293 16.293 16.293) with tilt (0 0 0)
  pair style sw stores no restart info
  216 atoms
  read_restart CPU = 0.000 seconds
include potential.mod
# NOTE: This script can be modified for different pair styles
# See in.elastic for more info.

# must undefine fix ave/time before resetting the timestep
if "$(is_defined(fix,avp))" then "unfix avp"
reset_timestep 0

# Choose potential
pair_style	sw
pair_coeff * * Si.sw Si
Reading sw potential file Si.sw with DATE: 2007-06-11

# Setup neighbor style
neighbor 1.0 nsq
neigh_modify once no every 1 delay 0 check yes

# Setup output

fix avp all ave/time  10 10 100 c_thermo_press mode vector
thermo		100
thermo_style custom step temp pe press f_avp[1] f_avp[2] f_avp[3] f_avp[4] f_avp[5] f_avp[6]
thermo_modify norm no

# Setup MD

timestep 0.001
fix 4 all nve
fix 5 all langevin 2000 2000 0.01 123457

# Negative deformation

variable delta equal -0.02*16.293
variable deltaxy equal -0.02*xy
variable deltaxz equal -0.02*xz
variable deltayz equal -0.02*yz
change_box all xz delta -0.32586 remap units box
Changing box ...
  triclinic box = (0 0 0) to (16.293 16.293 16.293) with tilt (0 -0.32586 0)

# Run MD

run 1000
Step          Temp          PotEng         Press         f_avp[1]       f_avp[2]       f_avp[3]       f_avp[4]       f_avp[5]       f_avp[6]
0   2155.8855     -875.94147      16548.946      0              0              0              0              0              0
Averages over the last 6 of 11 rows, steps 500 to 1000:
Temp PotEng Press f_avp[1] f_avp[2] f_avp[3] f_avp[4] f_avp[5] f_avp[6]
2062.98 -872.693 16632.8 15246.2 17274.3 16726.1 -1997.98 6729.58 -1057.94
Loop time of 0.165721 on 8 procs for 1000 steps with 216 atoms

include potential.mod
# NOTE: This script can be modified for different pair styles
# See in.elastic for more info.

# must undefine fix ave/time before resetting the timestep
if "$(is_defined(fix,avp))" then "unfix avp"
unfix avp
reset_timestep 0

# Choose potential
pair_style	sw
pair_coeff * * Si.sw Si
Reading sw potential file Si.sw with DATE: 2007-06-11

# Setup neighbor style
neighbor 1.0 nsq
neigh_modify once no every 1 delay 0 check yes

# Setup output

fix avp all ave/time  10 10 100 c_thermo_press mode vector
thermo		100
thermo_style custom step temp pe press f_avp[1] f_avp[2] f_avp[3] f_avp[4] f_avp[5] f_avp[6]
thermo_modify norm no

# Setup MD

timestep 0.001
fix 4 all nve
fix 5 all langevin 2000 2000 0.01 123457

run 300
Step          Temp          PotEng         Press         f_avp[1]       f_avp[2]       f_avp[3]       f_avp[4]       f_avp[5]       f_avp[6]
0   1902.0802     -872.75016      14293.369      0              0              0              0              0              0
Loop time of 0.0520572 on 8 procs for 300 steps with 216 atoms

# Obtain new stress tensor

variable pxx1 equal f_avp[1]
variable pyy1 equal f_avp[2]
variable pzz1 equal f_avp[3]
variable pxy1 equal f_avp[4]
variable pxz1 equal f_avp[5]
variable pyz1 equal f_avp[6]

# Compute elastic constant from pressure tensor

variable C1neg equal -3.00466360725449
variable C2neg equal 9.62737551687999
variable C3neg equal -4.8479479612035
variable C4neg equal -28.6353671097233
variable C5neg equal 40.4014328067737
variable C6neg equal -3.53562822105909

# Reset box and simulation parameters

clear
box tilt large

The 'box' command has been removed and will be ignored

read_restart restart.equil
Reading restart file ...
  restart file = 28 Mar 2023, LAMMPS = 28 Mar 2023
  restoring atom style atomic from restart
  triclinic box = (0 0 0) to (16.293 16.293 16.293) with tilt (0 0 0)
  pair style sw stores no restart info
  216 atoms
  read_restart CPU = 0.001 seconds
include potential.mod
# NOTE: This script can be modified for different pair styles
# See in.elastic for more info.

# must undefine fix ave/time before resetting the timestep
if "$(is_defined(fix,avp))" then "unfix avp"
reset_timestep 0

# Choose potential
pair_style	sw
pair_coeff * * Si.sw Si
Reading sw potential file Si.sw with DATE: 2007-06-11

# Setup neighbor style
neighbor 1.0 nsq
neigh_modify once no every 1 delay 0 check yes

# Setup output

fix avp all ave/time  10 10 100 c_thermo_press mode vector
thermo		100
thermo_style custom step temp pe press f_avp[1] f_avp[2] f_avp[3] f_avp[4] f_avp[5] f_avp[6]
thermo_modify norm no

# Setup MD

timestep 0.001
fix 4 all nve
fix 5 all langevin 2000 2000 0.01 123457

# Positive deformation

variable delta equal 0.02*16.293
variable deltaxy equal 0.02*xy
variable deltaxz equal 0.02*xz
variable deltayz equal 0.02*yz
change_box all xz delta 0.32586 remap units box
Changing box ...
  triclinic box = (0 0 0) to (16.293 16.293 16.293) with tilt (0 0.32586 0)

# Run MD

run 1000
Step          Temp          PotEng         Press         f_avp[1]       f_avp[2]       f_avp[3]       f_avp[4]       f_avp[5]       f_avp[6]
0   2155.8855     -875.39817      16331.084      0              0              0              0              0              0
Averages over the last 6 of 11 rows, steps 500 to 1000:
Temp PotEng Press f_avp[1] f_avp[2] f_avp[3] f_avp[4] f_avp[5] f_avp[6]
2014.84 -873.685 15484.9 15000.9 16321.7 16405.6 -333.024 -8712.68 -1998.48
Loop time of 0.167881 on 8 procs for 1000 steps with 216 atoms

include potential.mod
# NOTE: This script can be modified for different pair styles
# See in.elastic for more info.

# must undefine fix ave/time before resetting the timestep
if "$(is_defined(fix,avp))" then "unfix avp"
unfix avp
reset_timestep 0

# Choose potential
pair_style	sw
pair_coeff * * Si.sw Si
Reading sw potential file Si.sw with DATE: 2007-06-11

# Setup neighbor style
neighbor 1.0 nsq
neigh_modify once no every 1 delay 0 check yes

# Setup output

fix avp all ave/time  10 10 100 c_thermo_press mode vector
thermo		100
thermo_style custom step temp pe press f_avp[1] f_avp[2] f_avp[3] f_avp[4] f_avp[5] f_avp[6]
thermo_modify norm no

# Setup MD

timestep 0.001
fix 4 all nve
fix 5 all langevin 2000 2000 0.01 123457

run 300
Step          Temp          PotEng         Press         f_avp[1]       f_avp[2]       f_avp[3]       f_avp[4]       f_avp[5]       f_avp[6]
0   2061.1564     -875.21488      16333.905      0              0              0              0              0              0
Loop time of 0.0479844 on 8 procs for 300 steps with 216 atoms

# Obtain new stress tensor

variable tmp equal pe
variable e1 equal -873.787333464306
variable tmp equal press
variable p1 equal 16528.3452432678
variable tmp equal pxx
variable pxx1 equal 14281.3270075584
variable tmp equal pyy
variable pyy1 equal 16964.1783701299
variable tmp equal pzz
variable pzz1 equal 18339.5303521152
variable tmp equal pxy
variable pxy1 equal 2093.9898309769
variable tmp equal pxz
variable pxz1 equal -2261.49317505612
variable tmp equal pyz
variable pyz1 equal 7121.91160367708

# Compute elastic constant from pressure tensor

variable C1pos equal 10.868587004958
variable C2pos equal -2.92035375487049
variable C3pos equal -0.630591338833983
variable C4pos equal -37.0006413062262
variable C5pos equal -2.89945735002805
variable C6pos equal -4.4342960337274

# Combine positive and negative

variable C15 equal 0.5*(-3.00466360725449+10.868587004958)
variable C25 equal 0.5*(9.62737551687999+-2.92035375487049)
variable C35 equal 0.5*(-4.8479479612035+-0.630591338833983)
variable C45 equal 0.5*(-28.6353671097233+-37.0006413062262)
variable C55 equal 0.5*(40.4014328067737+-2.89945735002805)
variable C65 equal 0.5*(-3.53562822105909+-4.4342960337274)

# Delete dir to make sure it is not reused

variable dir delete

# uxy Perturbation

variable dir equal 6
include displace.mod
# NOTE: This script should not need to be
# modified. See in.elastic for more info.
#
# Find which reference length to use

variable len0 equal 16.293

# Reset box and simulation parameters

clear
box tilt large

The 'box' command has been removed and will be ignored

read_restart restart.equil
Reading restart file ...
  restart file = 28 Mar 2023, LAMMPS = 28 Mar 2023
  restoring atom style atomic from restart
  triclinic box = (0 0 0) to (16.293 16.293 16.293) with tilt (0 0 0)
  pair style sw stores no restart info
  216 atoms
  read_restart CPU = 0.000 seconds
include potential.mod
# NOTE: This script can be modified for different pair styles
# See in.elastic for more info.

# must undefine fix ave/time before resetting the timestep
if "$(is_defined(fix,avp))" then "unfix avp"
reset_timestep 0

# Choose potential
pair_style	sw
pair_coeff * * Si.sw Si
Reading sw potential file Si.sw with DATE: 2007-06-11

# Setup neighbor style
neighbor 1.0 nsq
neigh_modify once no every 1 delay 0 check yes

# Setup output

fix avp all ave/time  10 10 100 c_thermo_press mode vector
thermo		100
thermo_style custom step temp pe press f_avp[1] f_avp[2] f_avp[3] f_avp[4] f_avp[5] f_avp[6]
thermo_modify norm no

# Setup MD

timestep 0.001
fix 4 all nve
fix 5 all langevin 2000 2000 0.01 123457

# Negative deformation

variable delta equal -0.02*16.293
variable deltaxy equal -0.02*xy
variable deltaxz equal -0.02*xz
variable deltayz equal -0.02*yz
change_box all xy delta -0.32586 remap units box
Changing box ...
  triclinic box = (0 0 0) to (16.293 16.293 16.293) with tilt (-0.32586 0 0)

# Run MD

run 1000
Step          Temp          PotEng         Press         f_avp[1]       f_avp[2]       f_avp[3]       f_avp[4]       f_avp[5]       f_avp[6]
0   2155.8855     -876.27924      16542.497      0              0              0              0              0              0
Averages over the last 6 of 11 rows, steps 500 to 1000:
Temp PotEng Press f_avp[1] f_avp[2] f_avp[3] f_avp[4] f_avp[5] f_avp[6]
2011.26 -872.019 16310.9 16025.4 16321.9 17011.6 8854.87 -1488.61 1163.72
Loop time of 0.166342 on 8 procs for 1000 steps with 216 atoms

include potential.mod
# NOTE: This script can be modified for different pair styles
# See in.elastic for more info.

# must undefine fix ave/time before resetting the timestep
if "$(is_defined(fix,avp))" then "unfix avp"
unfix avp
reset_timestep 0

# Choose potential
pair_style	sw
pair_coeff * * Si.sw Si
Reading sw potential file Si.sw with DATE: 2007-06-11

# Setup neighbor style
neighbor 1.0 nsq
neigh_modify once no every 1 delay 0 check yes

# Setup output

fix avp all ave/time  10 10 100 c_thermo_press mode vector
thermo		100
thermo_style custom step temp pe press f_avp[1] f_avp[2] f_avp[3] f_avp[4] f_avp[5] f_avp[6]
thermo_modify norm no

# Setup MD

timestep 0.001
fix 4 all nve
fix 5 all langevin 2000 2000 0.01 123457

run 300
Step          Temp          PotEng         Press         f_avp[1]       f_avp[2]       f_avp[3]       f_avp[4]       f_avp[5]       f_avp[6]
0   2124.6323     -882.18062      16477.738      0              0              0              0              0              0
Loop time of 0.0488738 on 8 procs for 300 steps with 216 atoms

# Obtain new stress tensor

variable pxx1 equal f_avp[1]
variable pyy1 equal f_avp[2]
variable pzz1 equal f_avp[3]
variable pxy1 equal f_avp[4]
variable pxz1 equal f_avp[5]
variable pyz1 equal f_avp[6]

# Compute elastic constant from pressure tensor

variable C1neg equal 0.804567412432007
variable C2neg equal -3.305607322743
variable C3neg equal -8.64656039209351
variable C4neg equal 11.9263984276047
variable C5neg equal 18.695011992496
variable C6neg equal 17.1133287609126

# Reset box and simulation parameters

clear
box tilt large

The 'box' command has been removed and will be ignored

read_restart restart.equil
Reading restart file ...
  restart file = 28 Mar 2023, LAMMPS = 28 Mar 2023
  restoring atom style atomic from restart
  triclinic box = (0 0 0) to (16.293 16.293 16.293) with tilt (0 0 0)
  pair style sw stores no restart info
  216 atoms
  read_restart CPU = 0.001 seconds
include potential.mod
# NOTE: This script can be modified for different pair styles
# See in.elastic for more info.

# must undefine fix ave/time before resetting the timestep
if "$(is_defined(fix,avp))" then "unfix avp"
reset_timestep 0

# Choose potential
pair_style	sw
pair_coeff * * Si.sw Si
Reading sw potential file Si.sw with DATE: 2007-06-11

# Setup neighbor style
neighbor 1.0 nsq
neigh_modify once no every 1 delay 0 check yes

# Setup output

fix avp all ave/time  10 10 100 c_thermo_press mode vector
thermo		100
thermo_style custom step temp pe press f_avp[1] f_avp[2] f_avp[3] f_avp[4] f_avp[5] f_avp[6]
thermo_modify norm no

# Setup MD

timestep 0.001
fix 4 all nve
fix 5 all langevin 2000 2000 0.01 123457

# Positive deformation

variable delta equal 0.02*16.293
variable deltaxy equal 0.02*xy
variable deltaxz equal 0.02*xz
variable deltayz equal 0.02*yz
change_box all xy delta 0.32586 remap units box
Changing box ...
  triclinic box = (0 0 0) to (16.293 16.293 16.293) with tilt (0.32586 0 0)

# Run MD

run 1000
Step          Temp          PotEng         Press         f_avp[1]       f_avp[2]       f_avp[3]       f_avp[4]       f_avp[5]       f_avp[6]
0   2155.8855     -875.06342      16432.049      0              0              0              0              0              0
Averages over the last 6 of 11 rows, steps 500 to 1000:
Temp PotEng Press f_avp[1] f_avp[2] f_avp[3] f_avp[4] f_avp[5] f_avp[6]
1928.11 -875.977 16862 16428.1 16086.5 17554.3 -9136.24 1419.94 -2338.44
Loop time of 0.175772 on 8 procs for 1000 steps with 216 atoms

include potential.mod
# NOTE: This script can be modified for different pair styles
# See in.elastic for more info.

# must undefine fix ave/time before resetting the timestep
if "$(is_defined(fix,avp))" then "unfix avp"
unfix avp
reset_timestep 0

# Choose potential
pair_style	sw
pair_coeff * * Si.sw Si
Reading sw potential file Si.sw with DATE: 2007-06-11

# Setup neighbor style
neighbor 1.0 nsq
neigh_modify once no every 1 delay 0 check yes

# Setup output

fix avp all ave/time  10 10 100 c_thermo_press mode vector
thermo		100
thermo_style custom step temp pe press f_avp[1] f_avp[2] f_avp[3] f_avp[4] f_avp[5] f_avp[6]
thermo_modify norm no

# Setup MD

timestep 0.001
fix 4 all nve
fix 5 all langevin 2000 2000 0.01 123457

run 300
Step          Temp          PotEng         Press         f_avp[1]       f_avp[2]       f_avp[3]       f_avp[4]       f_avp[5]       f_avp[6]
0   1816.8259     -877.736        16998.856      0              0              0              0              0              0
Loop time of 0.048308 on 8 procs for 300 steps with 216 atoms

# Obtain new stress tensor

variable tmp equal pe
variable e1 equal -871.223867233599
variable tmp equal press
variable p1 equal 18527.9043581702
variable tmp equal pxx
variable pxx1 equal 18099.2395662444
variable tmp equal pyy
variable pyy1 equal 19086.087999591
variable tmp equal pzz
variable pzz1 equal 18398.3855086752
variable tmp equal pxy
variable pxy1 equal -15996.0453395124
variable tmp equal pxz
variable pxz1 equal -2200.96189944233
variable tmp equal pyz
variable pyz1 equal 2830.50398530195

# Compute elastic constant from pressure tensor

variable C1pos equal -8.22097578847201
variable C2pos equal -13.529901902176
variable C3pos equal -0.924867121633997
variable C4pos equal -15.5436032143506
variable C5pos equal -3.202113728097
variable C6pos equal 86.0158798187191

# Combine positive and negative

variable C16 equal 0.5*(0.804567412432007+-8.22097578847201)
variable C26 equal 0.5*(-3.305607322743+-13.529901902176)
variable C36 equal 0.5*(-8.64656039209351+-0.924867121633997)
variable C46 equal 0.5*(11.9263984276047+-15.5436032143506)
variable C56 equal 0.5*(18.695011992496+-3.202113728097)
variable C66 equal 0.5*(17.1133287609126+86.0158798187191)

# Delete dir to make sure it is not reused

variable dir delete

# Output final values

variable C11all equal 129.697186756901
variable C22all equal 126.477173834183
variable C33all equal 137.028000968916

variable C12all equal 0.5*(73.6272296205219+76.9767207525319)
variable C13all equal 0.5*(71.233529235322+80.1375919486686)
variable C23all equal 0.5*(86.298816509503+90.4515760710918)

variable C44all equal 16.9918137028559
variable C55all equal 18.7509877283728
variable C66all equal 51.5646042898158

variable C14all equal 0.5*(-3.84169303347149+-1.79037360168435)
variable C15all equal 0.5*(3.93196169885175+-42.4714725635926)
variable C16all equal 0.5*(-3.70820418802+-0.771332612377275)

variable C24all equal 0.5*(4.34247630811175+-12.1736712249212)
variable C25all equal 0.5*(3.35351088100475+3.3753716687571)
variable C26all equal 0.5*(-8.4177546124595+11.2016808066477)

variable C34all equal 0.5*(5.96973855950276+-0.1455864565665)
variable C35all equal 0.5*(-2.73926965001874+-24.6171380343247)
variable C36all equal 0.5*(-4.78571375686375+-31.7389289163425)

variable C45all equal 0.5*(-32.8180042079748+13.2960576860045)
variable C46all equal 0.5*(-1.80860239337295+-13.3045770341583)
variable C56all equal 0.5*(7.7464491321995+-3.98496212739325)

# Average moduli for cubic crystals

variable C11cubic equal (129.697186756901+126.477173834183+137.028000968916)/3.0
variable C12cubic equal (75.3019751865269+75.6855605919953+88.3751962902974)/3.0
variable C44cubic equal (16.9918137028559+18.7509877283728+51.5646042898158)/3.0

variable bulkmodulus equal (131.067453853333+2*79.7875773562732)/3.0
variable shearmodulus1 equal 29.1024685736815
variable shearmodulus2 equal (131.067453853333-79.7875773562732)/2.0
variable poissonratio equal 1.0/(1.0+131.067453853333/79.7875773562732)

# For Stillinger-Weber silicon, the analytical results
# are known to be (E. R. Cowley, 1988):
#               C11 = 151.4 GPa
#               C12 = 76.4 GPa
#               C44 = 56.4 GPa

print "========================================="
=========================================
print "Components of the Elastic Constant Tensor"
Components of the Elastic Constant Tensor
print "========================================="
=========================================

Elastic Constant C11all = 129.697186756901 GPa
Elastic Constant C22all = 126.477173834183 GPa
Elastic Constant C33all = 137.028000968916 GPa

Elastic Constant C12all = 75.3019751865269 GPa
Elastic Constant C13all = 75.6855605919953 GPa
Elastic Constant C23all = 88.3751962902974 GPa

Elastic Constant C44all = 16.9918137028559 GPa
Elastic Constant C55all = 18.7509877283728 GPa
Elastic Constant C66all = 51.5646042898158 GPa

Elastic Constant C14all = -2.81603331757792 GPa
Elastic Constant C15all = -19.2697554323704 GPa
Elastic Constant C16all = -2.23976840019864 GPa

Elastic Constant C24all = -3.91559745840473 GPa
Elastic Constant C25all = 3.36444127488092 GPa
Elastic Constant C26all = 1.3919630970941 GPa

Elastic Constant C34all = 2.91207605146813 GPa
Elastic Constant C35all = -13.6782038421717 GPa
Elastic Constant C36all = -18.2623213366031 GPa

Elastic Constant C45all = -9.76097326098515 GPa
Elastic Constant C46all = -7.55658971376563 GPa
Elastic Constant C56all = 1.88074350240313 GPa

print "========================================="
=========================================
print "Average properties for a cubic crystal"
Average properties for a cubic crystal
print "========================================="
=========================================

Bulk Modulus = 96.8808695219598 GPa
Shear Modulus 1 = 29.1024685736815 GPa
Shear Modulus 2 = 25.6399382485299 GPa
Poisson Ratio = 0.378400159097737
